Circuit: * C:\Users\perei\Documents\Teoria de Circuitos 2\Ltspice\Ts3\Draft1.asc

Ignoring empty pin current: Ix(u1:1)
Ignoring empty pin current: Ix(u1:2)

Date: Sat Jun 04 10:23:42 2022
Total elapsed time: 0.099 seconds.

tnom = 27
temp = 27
method = trap
totiter = 0
traniter = 0
tranpoints = 0
accept = 0
rejected = 0
matrix size = 7
fillins = 0
solver = Normal

