Singular deck expression: "r/(1-a)"=1.#INF
Singular deck expression: "l/(1-b)"=1.#INF
Circuit: * C:\Users\perei\Documents\GitHub\Tc2-R4001-Pereira\Ltspice\TS5\Draft2.asc


Date: Fri Jul 01 20:38:31 2022
Total elapsed time: 0.068 seconds.

tnom = 27
temp = 27
method = trap
totiter = 0
traniter = 0
tranpoints = 0
accept = 0
rejected = 0
matrix size = 3
fillins = 0
solver = Normal

