Circuit: * C:\Users\perei\Documents\GitHub\Tc2-R4001-Pereira\Ltspice\TS5\Ej2-c.asc


Date: Fri Jul 01 21:42:45 2022
Total elapsed time: 0.054 seconds.

tnom = 27
temp = 27
method = trap
totiter = 0
traniter = 0
tranpoints = 0
accept = 0
rejected = 0
matrix size = 4
fillins = 1
solver = Normal

