Circuit: * C:\Users\perei\Documents\GitHub\Tc2-R4001-Pereira\Ltspice\Ts8\Draft1.asc


Date: Wed Oct 12 14:04:38 2022
Total elapsed time: 0.061 seconds.

tnom = 27
temp = 27
method = trap
totiter = 0
traniter = 0
tranpoints = 0
accept = 0
rejected = 0
matrix size = 3
fillins = 0
solver = Normal

