Circuit: * C:\Users\perei\Documents\Teoria de Circuitos 2\Ltspice\Tp2\Ej6.asc

WARNING: Node VO is floating.

Ignoring empty pin current: Ix(u1:1)
Ignoring empty pin current: Ix(u1:2)
Ignoring empty pin current: Ix(u2:1)
Ignoring empty pin current: Ix(u2:2)

Date: Wed Jun 08 22:14:26 2022
Total elapsed time: 0.105 seconds.

tnom = 27
temp = 27
method = trap
totiter = 0
traniter = 0
tranpoints = 0
accept = 0
rejected = 0
matrix size = 11
fillins = 0
solver = Normal

